/*--------------------------------*- C++ -*----------------------------------*\
  =========                 |
  \\      /  F ield         | OpenFOAM: The Open Source CFD Toolbox
   \\    /   O peration     | Website:  https://openfoam.org
    \\  /    A nd           | Version:  12
     \\/     M anipulation  |
\*---------------------------------------------------------------------------*/
FoamFile
{
    format      ascii;
    class       dictionary;
    object      decomposeParDict;
}

// * * * * * * * * * * * * * * * * * * * * * * * * * * * * * * * * * * * * * //

numberOfSubdomains {{n_procs}};

//decomposer      hierarchical; // Keep hierarchical
//distributor     ptscotch;     // ptscotch is good for balancing
method          scotch;

/* simpleCoeffs
{
    n               (2 2 2);
    delta           0.001;
}

hierarchicalCoeffs
{
    // Choose based on core count. For 16:
    // (4 4 1) is a common choice for generally balanced decomposition.
    // (2 2 4) might also be considered if you want to partition more heavily in Z.
    n           (2 2 2); // <--- CHANGE THIS if using hierarchical
    order       xyz;
} */
// ************************************************************************* //
